! Controller parameter input file for the WEIS Turbine wind turbine
!    - File written using ROSCO version 2.9.0 controller tuning logic on 04/11/24

!------- SIMULATION CONTROL ------------------------------------------------------------
0                   ! LoggingLevel		- {0: write no debug files, 1: write standard output .dbg-file, 2: LoggingLevel 1 + ROSCO LocalVars (.dbg2) 3: LoggingLevel 2 + complete avrSWAP-array (.dbg3)}
0                   ! DT_Out    		  - {Time step to output .dbg* files, or 0 to match sampling period of OpenFAST}
1                   ! Ext_Interface		- (0 - use standard bladed interface, 1 - Use the extened DLL interface introduced in OpenFAST 3.5.0.)
0                   ! Echo		        - (0 - no Echo, 1 - Echo input data to <RootName>.echo)

!------- CONTROLLER FLAGS -------------------------------------------------
2                   ! F_LPFType			  - (1: first-order low-pass filter, 2: second-order low-pass filter), [rad/s] (currently filters generator speed and pitch control signals
0                   ! IPC_ControlMode	- Turn Individual Pitch Control (IPC) for fatigue load reductions (pitch contribution) {0: off, 1: 1P reductions, 2: 1P+2P reductions}
2                   ! VS_ControlMode	- Generator torque control mode in above rated conditions (0- no torque control, 1- k*omega^2 with PI transitions, 2- WSE TSR Tracking, 3- Power-based TSR Tracking)}
0                   ! VS_ConstPower  	- Do constant power torque control, where above rated torque varies, 0 for constant torque}
1                   ! PC_ControlMode  - Blade pitch control mode {0: No pitch, fix to fine pitch, 1: active PI blade pitch control}
0                   ! Y_ControlMode   - Yaw control mode {0: no yaw control, 1: yaw rate control, 2: yaw-by-IPC}
1                   ! SS_Mode         - Setpoint Smoother mode {0: no setpoint smoothing, 1: introduce setpoint smoothing}
0                   ! PRC_Mode        - Power reference tracking mode{0: use standard rotor speed set points, 1: use PRC rotor speed setpoints}
2                   ! WE_Mode         - Wind speed estimator mode {0: One-second low pass filtered hub height wind speed, 1: Immersion and Invariance Estimator, 2: Extended Kalman Filter}
0                   ! PS_Mode         - Pitch saturation mode {0: no pitch saturation, 1: implement pitch saturation}
0                   ! SD_Mode         - Shutdown mode {0: no shutdown procedure, 1: pitch to max pitch at shutdown}
2                   ! Fl_Mode         - Floating specific feedback mode {0: no nacelle velocity feedback, 1: feed back translational velocity, 2: feed back rotational veloicty}
0                   ! TD_Mode         - Tower damper mode (0- no tower damper, 1- feed back translational nacelle accelleration to pitch angle
0                   ! TRA_Mode        - Tower resonance avoidance mode (0- no tower resonsnace avoidance, 1- use torque control setpoints to avoid a specific frequency
0                   ! Flp_Mode        - Flap control mode {0: no flap control, 1: steady state flap angle, 2: Proportional flap control, 2: Cyclic (1P) flap control}
0                   ! OL_Mode         - Open loop control mode {0: no open loop control, 1: open loop control vs. time, 2: rotor position control}
0                   ! PA_Mode         - Pitch actuator mode {0 - not used, 1 - first order filter, 2 - second order filter}
0                   ! PF_Mode         - Pitch fault mode {0 - not used, 1 - constant offset on one or more blades}
0                   ! AWC_Mode        - Active wake control {0 - not used, 1 - complex number method, 2 - Coleman transform method}
0                   ! Ext_Mode        - External control mode {0 - not used, 1 - call external dynamic library}
1                   ! ZMQ_Mode        - Fuse ZeroMQ interface {0: unused, 1: Yaw Control}
0                   ! CC_Mode         - Cable control mode [0- unused, 1- User defined, 2- Open loop control]
0                   ! StC_Mode        - Structural control mode [0- unused, 1- User defined, 2- Open loop control]

!------- FILTERS ----------------------------------------------------------
1.00810             ! F_LPFCornerFreq	  - Corner frequency (-3dB point) in the low-pass filters, [rad/s]
0.70000             ! F_LPFDamping		  - Damping coefficient {used only when F_FilterType = 2} [-]
1                   ! F_NumNotchFilts   - Number of notch filters placed on sensors
3.3550              ! F_NotchFreqs      - Natural frequency of the notch filters. Array with length F_NumNotchFilts
0.0000              ! F_NotchBetaNum    - Damping value of numerator (determines the width of notch). Array with length F_NumNotchFilts, [-]
0.2500              ! F_NotchBetaDen    - Damping value of denominator (determines the depth of notch). Array with length F_NumNotchFilts, [-]
0                   ! F_GenSpdNotch_N   - Number of notch filters on generator speed
0                   ! F_GenSpdNotch_Ind - Indices of notch filters on generator speed
1                   ! F_TwrTopNotch_N   - Number of notch filters on tower top acceleration signal
1                   ! F_TwrTopNotch_Ind - Indices of notch filters on tower top acceleration signal
0.62830             ! F_SSCornerFreq    - Corner frequency (-3dB point) in the first order low pass filter for the setpoint smoother, [rad/s].
0.20944             ! F_WECornerFreq    - Corner frequency (-3dB point) in the first order low pass filter for the wind speed estimate [rad/s].
0.17952             ! F_YawErr          - Low pass filter corner frequency for yaw controller [rad/s].
0.213000  1.000000  ! F_FlCornerFreq    - Natural frequency and damping in the second order low pass filter of the tower-top fore-aft motion for floating feedback control [rad/s, -].
0.01000             ! F_FlHighPassFreq  - Natural frequency of first-order high-pass filter for nacelle fore-aft motion [rad/s].
10.4616 1.0000      ! F_FlpCornerFreq   - Corner frequency and damping in the second order low pass filter of the blade root bending moment for flap control

!------- BLADE PITCH CONTROL ----------------------------------------------
30                  ! PC_GS_n			- Amount of gain-scheduling table entries
0.052277  0.078489  0.099533  0.117668  0.133930  0.148878  0.162843  0.176049  0.188522  0.200446  0.211972  0.223039  0.233745  0.244223  0.254285  0.264197  0.273818  0.283265  0.292506  0.301567  0.310479  0.319220  0.327837  0.336304  0.344651  0.352884  0.360989  0.369024  0.376908  0.384767                ! PC_GS_angles	    - Gain-schedule table: pitch angles [rad].
-1.139402  -0.996657  -0.877255  -0.775903  -0.688795  -0.613127  -0.546783  -0.488140  -0.435930  -0.389151  -0.346996  -0.308812  -0.274064  -0.242307  -0.213172  -0.186346  -0.161566  -0.138605  -0.117272  -0.097398  -0.078839  -0.061468  -0.045175  -0.029863  -0.015446  -0.001847  0.011001  0.023160  0.034682  0.045616                ! PC_GS_KP		- Gain-schedule table: pitch controller kp gains [s].
-0.119799  -0.109131  -0.100208  -0.092634  -0.086124  -0.080469  -0.075511  -0.071129  -0.067227  -0.063731  -0.060581  -0.057727  -0.055131  -0.052757  -0.050580  -0.048575  -0.046723  -0.045007  -0.043413  -0.041928  -0.040541  -0.039243  -0.038025  -0.036881  -0.035804  -0.034787  -0.033827  -0.032918  -0.032057  -0.031240                ! PC_GS_KI		- Gain-schedule table: pitch controller ki gains [-].
0.000000  0.000000  0.000000  0.000000  0.000000  0.000000  0.000000  0.000000  0.000000  0.000000  0.000000  0.000000  0.000000  0.000000  0.000000  0.000000  0.000000  0.000000  0.000000  0.000000  0.000000  0.000000  0.000000  0.000000  0.000000  0.000000  0.000000  0.000000  0.000000  0.000000                ! PC_GS_KD			- Gain-schedule table: pitch controller kd gains
0.000000  0.000000  0.000000  0.000000  0.000000  0.000000  0.000000  0.000000  0.000000  0.000000  0.000000  0.000000  0.000000  0.000000  0.000000  0.000000  0.000000  0.000000  0.000000  0.000000  0.000000  0.000000  0.000000  0.000000  0.000000  0.000000  0.000000  0.000000  0.000000  0.000000                ! PC_GS_TF			- Gain-schedule table: pitch controller tf gains (derivative filter)
1.570000000000      ! PC_MaxPit			- Maximum physical pitch limit, [rad].
0.030000000000      ! PC_MinPit			- Minimum physical pitch limit, [rad].
0.034900000000      ! PC_MaxRat			- Maximum pitch rate (in absolute value) in pitch controller, [rad/s].
-0.03490000000      ! PC_MinRat			- Minimum pitch rate (in absolute value) in pitch controller, [rad/s].
0.791680000000      ! PC_RefSpd			- Desired (reference) HSS speed for pitch controller, [rad/s].
0.030000000000      ! PC_FinePit		- Record 5: Below-rated pitch angle set-point, [rad]
0.017450000000      ! PC_Switch			- Angle above lowest minimum pitch angle for switch, [rad]

!------- INDIVIDUAL PITCH CONTROL -----------------------------------------
9.200000  11.500000  ! IPC_Vramp		- Start and end wind speeds for cut-in ramp function. First entry: IPC inactive, second entry: IPC fully active. [m/s]
2                   ! IPC_SatMode		- IPC Saturation method (0 - no saturation (except by PC_MinPit), 1 - saturate by PS_BldPitchMin, 2 - saturate sotfly (full IPC cycle) by PC_MinPit, 3 - saturate softly by PS_BldPitchMin)
0.3                 ! IPC_IntSat		- Integrator saturation (maximum signal amplitude contribution to pitch from IPC), [rad]
0.000e+00 0.000e+00 ! IPC_KP			- Proportional gain for the individual pitch controller: first parameter for 1P reductions, second for 2P reductions, [-]
0.000e+00 0.000e+00 ! IPC_KI			- Integral gain for the individual pitch controller: first parameter for 1P reductions, second for 2P reductions, [-]
0.000000  0.000000  ! IPC_aziOffset		- Phase offset added to the azimuth angle for the individual pitch controller, [rad]. 
0.0                 ! IPC_CornerFreqAct - Corner frequency of the first-order actuators model, to induce a phase lag in the IPC signal {0: Disable}, [rad/s]

!------- VS TORQUE CONTROL ------------------------------------------------
96.55000000000      ! VS_GenEff			- Generator efficiency mechanical power -> electrical power, [should match the efficiency defined in the generator properties!], [%]
19336227.31528      ! VS_ArSatTq		- Above rated generator torque PI control saturation, [Nm]
4500000.000000      ! VS_MaxRat			- Maximum torque rate (in absolute value) in torque controller, [Nm/s].
21269850.04681      ! VS_MaxTq			- Maximum generator torque in Region 3 (HSS side), [Nm].
0.000000000000      ! VS_MinTq			- Minimum generator torque (HSS side), [Nm].
0.523600000000      ! VS_MinOMSpd		- Minimum generator speed [rad/s]
36535083.47186      ! VS_Rgn2K		- Generator torque constant in Region 2 (HSS side). Only used in VS_ControlMode = 1,3
14780000.00000      ! VS_RtPwr			- Wind turbine rated power [W]
19336227.31528      ! VS_RtTq			- Rated torque, [Nm].
0.717790000000      ! VS_RefSpd			- Rated generator speed [rad/s]
1                   ! VS_n				- Number of generator PI torque controller gains
-45520546.15482      ! VS_KP				- Proportional gain for generator PI torque controller [-]. (Only used in the transitional 2.5 region if VS_ControlMode =/ 2)
-4588245.18720      ! VS_KI				- Integral gain for generator PI torque controller [s]. (Only used in the transitional 2.5 region if VS_ControlMode =/ 2)
7.49                ! VS_TSRopt		    - Power-maximizing region 2 tip-speed-ratio. Only used in VS_ControlMode = 2.
0.314000000000      ! VS_PwrFiltF		- Low pass filter on power used to determine generator speed set point.  Only used in VS_ControlMode = 3.

!------- SETPOINT SMOOTHER ---------------------------------------------
1.00000             ! SS_VSGain         - Variable speed torque controller setpoint smoother gain, [-].
0.00100             ! SS_PCGain         - Collective pitch controller setpoint smoother gain, [-].

!------- POWER REFERENCE TRACKING --------------------------------------
2                   ! PRC_n			    -  Number of elements in PRC_WindSpeeds and PRC_GenSpeeds array
0.07854             ! PRC_LPF_Freq   - Frequency of the low pass filter on the wind speed estimate used to set PRC_GenSpeeds [rad/s]
3.0000 25.0000      ! PRC_WindSpeeds   - Array of wind speeds used in rotor speed vs. wind speed lookup table [m/s]
0.7917 0.7917       ! PRC_GenSpeeds   - Array of generator speeds corresponding to PRC_WindSpeeds [rad/s]

!------- WIND SPEED ESTIMATOR ---------------------------------------------
120.000             ! WE_BladeRadius	- Blade length (distance from hub center to blade tip), [m]
1                   ! WE_CP_n			- Amount of parameters in the Cp array
0.0                 ! WE_CP - Parameters that define the parameterized CP(lambda) function
0.0          		  ! WE_Gamma			- Adaption gain of the wind speed estimator algorithm [m/rad]
1.0                 ! WE_GearboxRatio	- Gearbox ratio [>=1],  [-]
318628138.00000     ! WE_Jtot			- Total drivetrain inertia, including blades, hub and casted generator inertia to LSS, [kg m^2]
1.225               ! WE_RhoAir			- Air density, [kg m^-3]
"IEA15MW_FOCAL_0_Cp_Ct_Cq.txt"      ! PerfFileName      - File containing rotor performance tables (Cp,Ct,Cq) (absolute path or relative to this file)
36      26          ! PerfTableSize     - Size of rotor performance tables, first number refers to number of blade pitch angles, second number referse to number of tip-speed ratios
60                  ! WE_FOPoles_N      - Number of first-order system poles used in EKF
3.0000 3.2931 3.5862 3.8793 4.1724 4.4655 4.7586 5.0517 5.3448 5.6379 5.9310 6.2241 6.5172 6.8103 7.1034 7.3966 7.6897 7.9828 8.2759 8.5690 8.8621 9.1552 9.4483 9.7414 10.0345 10.3276 10.6207 10.9138 11.2069 11.5000 11.9500 12.4000 12.8500 13.3000 13.7500 14.2000 14.6500 15.1000 15.5500 16.0000 16.4500 16.9000 17.3500 17.8000 18.2500 18.7000 19.1500 19.6000 20.0500 20.5000 20.9500 21.4000 21.8500 22.3000 22.7500 23.2000 23.6500 24.1000 24.5500 25.0000               ! WE_FOPoles_v      - Wind speeds corresponding to first-order system poles [m/s]
-0.01636559 -0.01796453 -0.01956346 -0.02116240 -0.02276134 -0.02436027 -0.02595921 -0.02755815 -0.02915709 -0.03075602 -0.03235496 -0.03395390 -0.03555283 -0.03715177 -0.03875071 -0.04034964 -0.04194858 -0.04354752 -0.04514646 -0.04674539 -0.04834433 -0.04994327 -0.05154220 -0.05314114 -0.05474008 -0.05633901 -0.05793795 -0.05953689 -0.06113582 -0.07869497 -0.05882090 -0.06109798 -0.06727734 -0.07535984 -0.08479173 -0.09509465 -0.10650478 -0.11806997 -0.13065906 -0.14372868 -0.15707279 -0.17115943 -0.18571777 -0.20031627 -0.21561408 -0.23136041 -0.24737114 -0.26358221 -0.28030230 -0.29744438 -0.31492651 -0.33247517 -0.35036885 -0.36866660 -0.38732378 -0.40627561 -0.42548669 -0.44465459 -0.46403433 -0.48396827               ! WE_FOPoles        - First order system poles [1/s]

!------- YAW CONTROL ------------------------------------------------------
0.00000             ! Y_uSwitch		- Wind speed to switch between Y_ErrThresh. If zero, only the second value of Y_ErrThresh is used [m/s]
4.000000  8.000000  ! Y_ErrThresh    - Yaw error threshold/deadbands. Turbine begins to yaw when it passes this. If Y_uSwitch is zero, only the second value is used. [deg].
0.00870             ! Y_Rate			- Yaw rate [rad/s]
0.00000             ! Y_MErrSet		- Integrator saturation (maximum signal amplitude contribution to pitch from yaw-by-IPC), [rad]
0.00000             ! Y_IPC_IntSat		- Integrator saturation (maximum signal amplitude contribution to pitch from yaw-by-IPC), [rad]
0.00000             ! Y_IPC_KP			- Yaw-by-IPC proportional controller gain Kp
0.00000             ! Y_IPC_KI			- Yaw-by-IPC integral controller gain Ki

!------- TOWER CONTROL ------------------------------------------------------
0.00000             ! TRA_ExclSpeed	    - Rotor speed for exclusion [LSS, rad/s]
0.00000             ! TRA_ExclBand	    - Size of the rotor frequency exclusion band [LSS, rad/s]. Torque controller reference will be TRA_ExclSpeed +/- TRA_ExlBand/2
0.00000e+00         ! TRA_RateLimit	    - Rate limit of change in rotor speed reference [LSS, rad/s].  Suggested to be VS_RefSpd/400.
0.00000             ! FA_KI				- Integral gain for the fore-aft tower damper controller,  [rad*s/m]
0.00000             ! FA_HPFCornerFreq	- Corner frequency (-3dB point) in the high-pass filter on the fore-aft acceleration signal [rad/s]
0.00000             ! FA_IntSat			- Integrator saturation (maximum signal amplitude contribution to pitch from FA damper), [rad]

!------- MINIMUM PITCH SATURATION -------------------------------------------
60                  ! PS_BldPitchMin_N  - Number of values in minimum blade pitch lookup table (should equal number of values in PS_WindSpeeds and PS_BldPitchMin)
3.000 3.293 3.586 3.879 4.172 4.466 4.759 5.052 5.345 5.638 5.931 6.224 6.517 6.810 7.103 7.397 7.690 7.983 8.276 8.569 8.862 9.155 9.448 9.741 10.034 10.328 10.621 10.914 11.207 11.500 11.950 12.400 12.850 13.300 13.750 14.200 14.650 15.100 15.550 16.000 16.450 16.900 17.350 17.800 18.250 18.700 19.150 19.600 20.050 20.500 20.950 21.400 21.850 22.300 22.750 23.200 23.650 24.100 24.550 25.000               ! PS_WindSpeeds     - Wind speeds corresponding to minimum blade pitch angles [m/s]
0.030      0.030      0.030      0.030      0.030      0.030      0.030      0.030      0.030      0.030      0.030      0.030      0.030      0.030      0.030      0.030      0.030      0.030      0.030      0.030      0.030      0.030      0.030      0.030      0.030      0.030      0.030      0.030      0.030      0.030      0.030      0.030      0.030      0.030      0.030      0.030      0.030      0.030      0.030      0.030      0.030      0.030      0.030      0.030      0.030      0.030      0.030      0.030      0.030      0.030      0.030      0.030      0.030      0.030      0.030      0.030      0.030      0.030      0.030      0.030                    ! PS_BldPitchMin    - Minimum blade pitch angles [rad]

!------- SHUTDOWN -----------------------------------------------------------
0.698100000000      ! SD_MaxPit         - Maximum blade pitch angle to initiate shutdown, [rad]
0.418880000000      ! SD_CornerFreq     - Cutoff Frequency for first order low-pass filter for blade pitch angle, [rad/s]

!------- Floating -----------------------------------------------------------
1                   ! Fl_n              - Number of Fl_Kp gains in gain scheduling, optional with default of 1
-9.3648             ! Fl_Kp             - Nacelle pitching proportional feedback gain [s]
12.0750             ! Fl_U              - Wind speeds for scheduling Fl_Kp, optional if Fl_Kp is single value [m/s]

!------- FLAP ACTUATION -----------------------------------------------------
0.000000000000      ! Flp_Angle         - Initial or steady state flap angle [rad]
0.00000000e+00      ! Flp_Kp            - Blade root bending moment proportional gain for flap control [s]
0.00000000e+00      ! Flp_Ki            - Flap displacement integral gain for flap control [-]
0.174500000000      ! Flp_MaxPit        - Maximum (and minimum) flap pitch angle [rad]

!------- Open Loop Control -----------------------------------------------------
"unused"            ! OL_Filename       - Input file with open loop timeseries (absolute path or relative to this file)
0                   ! Ind_Breakpoint    - The column in OL_Filename that contains the breakpoint (time if OL_Mode = 1)
  0   0   0         ! Ind_BldPitch      - The columns in OL_Filename that contains the blade pitch (1,2,3) inputs in rad [array]
0                   ! Ind_GenTq         - The column in OL_Filename that contains the generator torque in Nm
0                   ! Ind_YawRate       - The column in OL_Filename that contains the yaw rate in rad/s
0                   ! Ind_Azimuth       - The column in OL_Filename that contains the desired azimuth position in rad (used if OL_Mode = 2)
0.0000 0.0000 0.0000 0.0000        ! RP_Gains - PID gains and Tf of derivative for rotor position control (used if OL_Mode = 2)
0                   ! Ind_CableControl  - The column(s) in OL_Filename that contains the cable control inputs in m [Used with CC_Mode = 2, must be the same size as CC_Group_N]
0                   ! Ind_StructControl - The column(s) in OL_Filename that contains the structural control inputs [Used with StC_Mode = 2, must be the same size as StC_Group_N]

!------- Pitch Actuator Model -----------------------------------------------------
3.140000000000       ! PA_CornerFreq     - Pitch actuator bandwidth/cut-off frequency [rad/s]
0.707000000000       ! PA_Damping        - Pitch actuator damping ratio [-, unused if PA_Mode = 1]

!------- Pitch Actuator Faults -----------------------------------------------------
0.00000000 0.00000000 0.00000000                 ! PF_Offsets     - Constant blade pitch offsets for blades 1-3 [rad]

!------- Active Wake Control -----------------------------------------------------
1                   ! AWC_NumModes       - Number of user-defined AWC forcing modes 
1                   ! AWC_n              - Azimuthal mode number(s) (i.e., the number and direction of the lobes of the wake structure)
1                   ! AWC_harmonic       - Harmonic(s) to apply in the AWC Inverse Coleman Transformation (only used when AWC_Mode = 2)
0.0500              ! AWC_freq           - Frequency(s) of forcing mode(s) [Hz]
1.0000              ! AWC_amp            - Pitch amplitude(s) of individual forcing mode(s) [deg]
0.0000              ! AWC_clockangle     - Initial angle(s) of forcing mode(s) [deg]

!------- External Controller Interface -----------------------------------------------------
"unused"            ! DLL_FileName        - Name/location of the dynamic library in the Bladed-DLL format
"unused"            ! DLL_InFile          - Name of input file sent to the DLL (-)
"DISCON"            ! DLL_ProcName        - Name of procedure in DLL to be called (-) 

!------- ZeroMQ Interface ---------------------------------------------------------
"tcp://localhost:5555"            ! ZMQ_CommAddress     - Communication address for ZMQ server, (e.g. "tcp://localhost:5555") 
1.000000            ! ZMQ_UpdatePeriod    - Update period at zmq interface to send measurements and wait for setpoint [sec.]
1                   ! ZMQ_ID       - Integer identifier of turbine

!------- Cable Control ---------------------------------------------------------
1                   ! CC_Group_N        - Number of cable control groups
0                   ! CC_GroupIndex     - First index for cable control group, should correspond to deltaL
20.000000           ! CC_ActTau         - Time constant for line actuator [s]

!------- Structural Controllers ---------------------------------------------------------
1                   ! StC_Group_N       - Number of cable control groups
0                   ! StC_GroupIndex    - First index for structural control group, options specified in ServoDyn summary output
