.gitignore
.readthedocs.yaml
LICENSE
README.md
environment.yml
pyproject.toml
setup.py
.github/pull_request_template.md
.github/ISSUE_TEMPLATE/bug_report.md
.github/ISSUE_TEMPLATE/feature_request.md
.github/tools/cibw_repair_wheel_command_windows.sh
.github/workflows/CI_rosco-compile.yml
.github/workflows/Publish_ROSCO.yml
Examples/.gitignore
Examples/01_turbine_model.py
Examples/02_ccblade.py
Examples/03_tune_controller.py
Examples/04_simple_sim.py
Examples/05_openfast_sim.py
Examples/06_peak_shaving.py
Examples/07_openfast_outputs.py
Examples/08_run_turbsim.py
Examples/09_distributed_aero.py
Examples/10_linear_params.py
Examples/11_robust_tuning.py
Examples/12_tune_ipc.py
Examples/14_open_loop_control.py
Examples/15_pass_through.py
Examples/16_external_dll.py
Examples/17a_zeromq_simple.py
Examples/17b_zeromq_multi_openfast.py
Examples/18_pitch_offsets.py
Examples/19_update_discon_version.py
Examples/20_active_wake_control.py
Examples/21_optional_inputs.py
Examples/22_cable_control.py
Examples/23_structural_control.py
Examples/24_floating_feedback.py
Examples/25_rotor_position_control.py
Examples/26_marine_hydro.py
Examples/27_power_ref_control.py
Examples/28_tower_resonance.py
Examples/README.md
Examples/ROSCO_walkthrough.ipynb
Examples/Test_Cases/update_libdiscon_extension.py
Examples/Test_Cases/update_rosco_discons.py
Examples/Test_Cases/5MW_Land_Simulink/5MW_Land_Simulink.fst
Examples/Test_Cases/5MW_Land_Simulink/NRELOffshrBsline5MW_Onshore_ServoDyn.dat
Examples/Test_Cases/BAR_10/BAR_10.fst
Examples/Test_Cases/BAR_10/BAR_10_AeroDyn15.dat
Examples/Test_Cases/BAR_10/BAR_10_AeroDyn15_blade.dat
Examples/Test_Cases/BAR_10/BAR_10_BeamDyn.dat
Examples/Test_Cases/BAR_10/BAR_10_BeamDyn_Blade.dat
Examples/Test_Cases/BAR_10/BAR_10_DISCON.IN
Examples/Test_Cases/BAR_10/BAR_10_ElastoDyn.dat
Examples/Test_Cases/BAR_10/BAR_10_ElastoDyn_blade.dat
Examples/Test_Cases/BAR_10/BAR_10_ElastoDyn_tower.dat
Examples/Test_Cases/BAR_10/BAR_10_InflowFile.dat
Examples/Test_Cases/BAR_10/BAR_10_ServoDyn.dat
Examples/Test_Cases/BAR_10/Cp_Ct_Cq.BAR_10.txt
Examples/Test_Cases/BAR_10/Airfoils/AF00_Coords.txt
Examples/Test_Cases/BAR_10/Airfoils/AF01_Coords.txt
Examples/Test_Cases/BAR_10/Airfoils/AF02_Coords.txt
Examples/Test_Cases/BAR_10/Airfoils/AF03_Coords.txt
Examples/Test_Cases/BAR_10/Airfoils/AF04_Coords.txt
Examples/Test_Cases/BAR_10/Airfoils/AF05_Coords.txt
Examples/Test_Cases/BAR_10/Airfoils/AF06_Coords.txt
Examples/Test_Cases/BAR_10/Airfoils/AF07_Coords.txt
Examples/Test_Cases/BAR_10/Airfoils/AF08_Coords.txt
Examples/Test_Cases/BAR_10/Airfoils/AF09_Coords.txt
Examples/Test_Cases/BAR_10/Airfoils/AF10_Coords.txt
Examples/Test_Cases/BAR_10/Airfoils/AF11_Coords.txt
Examples/Test_Cases/BAR_10/Airfoils/AF12_Coords.txt
Examples/Test_Cases/BAR_10/Airfoils/AF13_Coords.txt
Examples/Test_Cases/BAR_10/Airfoils/AF14_Coords.txt
Examples/Test_Cases/BAR_10/Airfoils/AF15_Coords.txt
Examples/Test_Cases/BAR_10/Airfoils/AF16_Coords.txt
Examples/Test_Cases/BAR_10/Airfoils/AF17_Coords.txt
Examples/Test_Cases/BAR_10/Airfoils/AF18_Coords.txt
Examples/Test_Cases/BAR_10/Airfoils/AF19_Coords.txt
Examples/Test_Cases/BAR_10/Airfoils/AF20_Coords.txt
Examples/Test_Cases/BAR_10/Airfoils/AF21_Coords.txt
Examples/Test_Cases/BAR_10/Airfoils/AF22_Coords.txt
Examples/Test_Cases/BAR_10/Airfoils/AF23_Coords.txt
Examples/Test_Cases/BAR_10/Airfoils/AF24_Coords.txt
Examples/Test_Cases/BAR_10/Airfoils/AF25_Coords.txt
Examples/Test_Cases/BAR_10/Airfoils/AF26_Coords.txt
Examples/Test_Cases/BAR_10/Airfoils/AF27_Coords.txt
Examples/Test_Cases/BAR_10/Airfoils/AF28_Coords.txt
Examples/Test_Cases/BAR_10/Airfoils/AF29_Coords.txt
Examples/Test_Cases/BAR_10/Airfoils/BAR_10_AeroDyn15_Polar_00.dat
Examples/Test_Cases/BAR_10/Airfoils/BAR_10_AeroDyn15_Polar_01.dat
Examples/Test_Cases/BAR_10/Airfoils/BAR_10_AeroDyn15_Polar_02.dat
Examples/Test_Cases/BAR_10/Airfoils/BAR_10_AeroDyn15_Polar_03.dat
Examples/Test_Cases/BAR_10/Airfoils/BAR_10_AeroDyn15_Polar_04.dat
Examples/Test_Cases/BAR_10/Airfoils/BAR_10_AeroDyn15_Polar_05.dat
Examples/Test_Cases/BAR_10/Airfoils/BAR_10_AeroDyn15_Polar_06.dat
Examples/Test_Cases/BAR_10/Airfoils/BAR_10_AeroDyn15_Polar_07.dat
Examples/Test_Cases/BAR_10/Airfoils/BAR_10_AeroDyn15_Polar_08.dat
Examples/Test_Cases/BAR_10/Airfoils/BAR_10_AeroDyn15_Polar_09.dat
Examples/Test_Cases/BAR_10/Airfoils/BAR_10_AeroDyn15_Polar_10.dat
Examples/Test_Cases/BAR_10/Airfoils/BAR_10_AeroDyn15_Polar_11.dat
Examples/Test_Cases/BAR_10/Airfoils/BAR_10_AeroDyn15_Polar_12.dat
Examples/Test_Cases/BAR_10/Airfoils/BAR_10_AeroDyn15_Polar_13.dat
Examples/Test_Cases/BAR_10/Airfoils/BAR_10_AeroDyn15_Polar_14.dat
Examples/Test_Cases/BAR_10/Airfoils/BAR_10_AeroDyn15_Polar_15.dat
Examples/Test_Cases/BAR_10/Airfoils/BAR_10_AeroDyn15_Polar_16.dat
Examples/Test_Cases/BAR_10/Airfoils/BAR_10_AeroDyn15_Polar_17.dat
Examples/Test_Cases/BAR_10/Airfoils/BAR_10_AeroDyn15_Polar_18.dat
Examples/Test_Cases/BAR_10/Airfoils/BAR_10_AeroDyn15_Polar_19.dat
Examples/Test_Cases/BAR_10/Airfoils/BAR_10_AeroDyn15_Polar_20.dat
Examples/Test_Cases/BAR_10/Airfoils/BAR_10_AeroDyn15_Polar_21.dat
Examples/Test_Cases/BAR_10/Airfoils/BAR_10_AeroDyn15_Polar_22.dat
Examples/Test_Cases/BAR_10/Airfoils/BAR_10_AeroDyn15_Polar_23.dat
Examples/Test_Cases/BAR_10/Airfoils/BAR_10_AeroDyn15_Polar_24.dat
Examples/Test_Cases/BAR_10/Airfoils/BAR_10_AeroDyn15_Polar_25.dat
Examples/Test_Cases/BAR_10/Airfoils/BAR_10_AeroDyn15_Polar_26.dat
Examples/Test_Cases/BAR_10/Airfoils/BAR_10_AeroDyn15_Polar_27.dat
Examples/Test_Cases/BAR_10/Airfoils/BAR_10_AeroDyn15_Polar_28.dat
Examples/Test_Cases/BAR_10/Airfoils/BAR_10_AeroDyn15_Polar_29.dat
Examples/Test_Cases/IEA-15-240-RWT-UMaineSemi/Cp_Ct_Cq.IEA15MW.txt
Examples/Test_Cases/IEA-15-240-RWT-UMaineSemi/DISCON-UMaineSemi.IN
Examples/Test_Cases/IEA-15-240-RWT-UMaineSemi/IEA-15-240-RWT-UMaineSemi.fst
Examples/Test_Cases/IEA-15-240-RWT-UMaineSemi/IEA-15-240-RWT-UMaineSemi_ElastoDyn.dat
Examples/Test_Cases/IEA-15-240-RWT-UMaineSemi/IEA-15-240-RWT-UMaineSemi_ElastoDyn_tower.dat
Examples/Test_Cases/IEA-15-240-RWT-UMaineSemi/IEA-15-240-RWT-UMaineSemi_HydroDyn.dat
Examples/Test_Cases/IEA-15-240-RWT-UMaineSemi/IEA-15-240-RWT-UMaineSemi_MoorDyn.dat
Examples/Test_Cases/IEA-15-240-RWT-UMaineSemi/IEA-15-240-RWT-UMaineSemi_ServoDyn.dat
Examples/Test_Cases/IEA-15-240-RWT-UMaineSemi/IEA-15-240-RWT_AeroDyn15.dat
Examples/Test_Cases/IEA-15-240-RWT-UMaineSemi/IEA-15-240-RWT_AeroDyn15_blade.dat
Examples/Test_Cases/IEA-15-240-RWT-UMaineSemi/IEA-15-240-RWT_BeamDyn.dat
Examples/Test_Cases/IEA-15-240-RWT-UMaineSemi/IEA-15-240-RWT_BeamDyn_blade.dat
Examples/Test_Cases/IEA-15-240-RWT-UMaineSemi/IEA-15-240-RWT_ElastoDyn_blade.dat
Examples/Test_Cases/IEA-15-240-RWT-UMaineSemi/IEA-15-240-RWT_InflowFile.dat
Examples/Test_Cases/IEA-15-240-RWT-UMaineSemi/StC-Force-Col1.dat
Examples/Test_Cases/IEA-15-240-RWT-UMaineSemi/StC-Force-Col2.dat
Examples/Test_Cases/IEA-15-240-RWT-UMaineSemi/StC-Force-Col3.dat
Examples/Test_Cases/IEA-15-240-RWT-UMaineSemi/ss_ops.yaml
Examples/Test_Cases/IEA-15-240-RWT-UMaineSemi/Airfoils/IEA-15-240-RWT_AeroDyn15_Polar_00.dat
Examples/Test_Cases/IEA-15-240-RWT-UMaineSemi/Airfoils/IEA-15-240-RWT_AeroDyn15_Polar_00_Coords.txt
Examples/Test_Cases/IEA-15-240-RWT-UMaineSemi/Airfoils/IEA-15-240-RWT_AeroDyn15_Polar_01.dat
Examples/Test_Cases/IEA-15-240-RWT-UMaineSemi/Airfoils/IEA-15-240-RWT_AeroDyn15_Polar_01_Coords.txt
Examples/Test_Cases/IEA-15-240-RWT-UMaineSemi/Airfoils/IEA-15-240-RWT_AeroDyn15_Polar_02.dat
Examples/Test_Cases/IEA-15-240-RWT-UMaineSemi/Airfoils/IEA-15-240-RWT_AeroDyn15_Polar_02_Coords.txt
Examples/Test_Cases/IEA-15-240-RWT-UMaineSemi/Airfoils/IEA-15-240-RWT_AeroDyn15_Polar_03.dat
Examples/Test_Cases/IEA-15-240-RWT-UMaineSemi/Airfoils/IEA-15-240-RWT_AeroDyn15_Polar_03_Coords.txt
Examples/Test_Cases/IEA-15-240-RWT-UMaineSemi/Airfoils/IEA-15-240-RWT_AeroDyn15_Polar_04.dat
Examples/Test_Cases/IEA-15-240-RWT-UMaineSemi/Airfoils/IEA-15-240-RWT_AeroDyn15_Polar_04_Coords.txt
Examples/Test_Cases/IEA-15-240-RWT-UMaineSemi/Airfoils/IEA-15-240-RWT_AeroDyn15_Polar_05.dat
Examples/Test_Cases/IEA-15-240-RWT-UMaineSemi/Airfoils/IEA-15-240-RWT_AeroDyn15_Polar_05_Coords.txt
Examples/Test_Cases/IEA-15-240-RWT-UMaineSemi/Airfoils/IEA-15-240-RWT_AeroDyn15_Polar_06.dat
Examples/Test_Cases/IEA-15-240-RWT-UMaineSemi/Airfoils/IEA-15-240-RWT_AeroDyn15_Polar_06_Coords.txt
Examples/Test_Cases/IEA-15-240-RWT-UMaineSemi/Airfoils/IEA-15-240-RWT_AeroDyn15_Polar_07.dat
Examples/Test_Cases/IEA-15-240-RWT-UMaineSemi/Airfoils/IEA-15-240-RWT_AeroDyn15_Polar_07_Coords.txt
Examples/Test_Cases/IEA-15-240-RWT-UMaineSemi/Airfoils/IEA-15-240-RWT_AeroDyn15_Polar_08.dat
Examples/Test_Cases/IEA-15-240-RWT-UMaineSemi/Airfoils/IEA-15-240-RWT_AeroDyn15_Polar_08_Coords.txt
Examples/Test_Cases/IEA-15-240-RWT-UMaineSemi/Airfoils/IEA-15-240-RWT_AeroDyn15_Polar_09.dat
Examples/Test_Cases/IEA-15-240-RWT-UMaineSemi/Airfoils/IEA-15-240-RWT_AeroDyn15_Polar_09_Coords.txt
Examples/Test_Cases/IEA-15-240-RWT-UMaineSemi/Airfoils/IEA-15-240-RWT_AeroDyn15_Polar_10.dat
Examples/Test_Cases/IEA-15-240-RWT-UMaineSemi/Airfoils/IEA-15-240-RWT_AeroDyn15_Polar_10_Coords.txt
Examples/Test_Cases/IEA-15-240-RWT-UMaineSemi/Airfoils/IEA-15-240-RWT_AeroDyn15_Polar_11.dat
Examples/Test_Cases/IEA-15-240-RWT-UMaineSemi/Airfoils/IEA-15-240-RWT_AeroDyn15_Polar_11_Coords.txt
Examples/Test_Cases/IEA-15-240-RWT-UMaineSemi/Airfoils/IEA-15-240-RWT_AeroDyn15_Polar_12.dat
Examples/Test_Cases/IEA-15-240-RWT-UMaineSemi/Airfoils/IEA-15-240-RWT_AeroDyn15_Polar_12_Coords.txt
Examples/Test_Cases/IEA-15-240-RWT-UMaineSemi/Airfoils/IEA-15-240-RWT_AeroDyn15_Polar_13.dat
Examples/Test_Cases/IEA-15-240-RWT-UMaineSemi/Airfoils/IEA-15-240-RWT_AeroDyn15_Polar_13_Coords.txt
Examples/Test_Cases/IEA-15-240-RWT-UMaineSemi/Airfoils/IEA-15-240-RWT_AeroDyn15_Polar_14.dat
Examples/Test_Cases/IEA-15-240-RWT-UMaineSemi/Airfoils/IEA-15-240-RWT_AeroDyn15_Polar_14_Coords.txt
Examples/Test_Cases/IEA-15-240-RWT-UMaineSemi/Airfoils/IEA-15-240-RWT_AeroDyn15_Polar_15.dat
Examples/Test_Cases/IEA-15-240-RWT-UMaineSemi/Airfoils/IEA-15-240-RWT_AeroDyn15_Polar_15_Coords.txt
Examples/Test_Cases/IEA-15-240-RWT-UMaineSemi/Airfoils/IEA-15-240-RWT_AeroDyn15_Polar_16.dat
Examples/Test_Cases/IEA-15-240-RWT-UMaineSemi/Airfoils/IEA-15-240-RWT_AeroDyn15_Polar_16_Coords.txt
Examples/Test_Cases/IEA-15-240-RWT-UMaineSemi/Airfoils/IEA-15-240-RWT_AeroDyn15_Polar_17.dat
Examples/Test_Cases/IEA-15-240-RWT-UMaineSemi/Airfoils/IEA-15-240-RWT_AeroDyn15_Polar_17_Coords.txt
Examples/Test_Cases/IEA-15-240-RWT-UMaineSemi/Airfoils/IEA-15-240-RWT_AeroDyn15_Polar_18.dat
Examples/Test_Cases/IEA-15-240-RWT-UMaineSemi/Airfoils/IEA-15-240-RWT_AeroDyn15_Polar_18_Coords.txt
Examples/Test_Cases/IEA-15-240-RWT-UMaineSemi/Airfoils/IEA-15-240-RWT_AeroDyn15_Polar_19.dat
Examples/Test_Cases/IEA-15-240-RWT-UMaineSemi/Airfoils/IEA-15-240-RWT_AeroDyn15_Polar_19_Coords.txt
Examples/Test_Cases/IEA-15-240-RWT-UMaineSemi/Airfoils/IEA-15-240-RWT_AeroDyn15_Polar_20.dat
Examples/Test_Cases/IEA-15-240-RWT-UMaineSemi/Airfoils/IEA-15-240-RWT_AeroDyn15_Polar_20_Coords.txt
Examples/Test_Cases/IEA-15-240-RWT-UMaineSemi/Airfoils/IEA-15-240-RWT_AeroDyn15_Polar_21.dat
Examples/Test_Cases/IEA-15-240-RWT-UMaineSemi/Airfoils/IEA-15-240-RWT_AeroDyn15_Polar_21_Coords.txt
Examples/Test_Cases/IEA-15-240-RWT-UMaineSemi/Airfoils/IEA-15-240-RWT_AeroDyn15_Polar_22.dat
Examples/Test_Cases/IEA-15-240-RWT-UMaineSemi/Airfoils/IEA-15-240-RWT_AeroDyn15_Polar_22_Coords.txt
Examples/Test_Cases/IEA-15-240-RWT-UMaineSemi/Airfoils/IEA-15-240-RWT_AeroDyn15_Polar_23.dat
Examples/Test_Cases/IEA-15-240-RWT-UMaineSemi/Airfoils/IEA-15-240-RWT_AeroDyn15_Polar_23_Coords.txt
Examples/Test_Cases/IEA-15-240-RWT-UMaineSemi/Airfoils/IEA-15-240-RWT_AeroDyn15_Polar_24.dat
Examples/Test_Cases/IEA-15-240-RWT-UMaineSemi/Airfoils/IEA-15-240-RWT_AeroDyn15_Polar_24_Coords.txt
Examples/Test_Cases/IEA-15-240-RWT-UMaineSemi/Airfoils/IEA-15-240-RWT_AeroDyn15_Polar_25.dat
Examples/Test_Cases/IEA-15-240-RWT-UMaineSemi/Airfoils/IEA-15-240-RWT_AeroDyn15_Polar_25_Coords.txt
Examples/Test_Cases/IEA-15-240-RWT-UMaineSemi/Airfoils/IEA-15-240-RWT_AeroDyn15_Polar_26.dat
Examples/Test_Cases/IEA-15-240-RWT-UMaineSemi/Airfoils/IEA-15-240-RWT_AeroDyn15_Polar_26_Coords.txt
Examples/Test_Cases/IEA-15-240-RWT-UMaineSemi/Airfoils/IEA-15-240-RWT_AeroDyn15_Polar_27.dat
Examples/Test_Cases/IEA-15-240-RWT-UMaineSemi/Airfoils/IEA-15-240-RWT_AeroDyn15_Polar_27_Coords.txt
Examples/Test_Cases/IEA-15-240-RWT-UMaineSemi/Airfoils/IEA-15-240-RWT_AeroDyn15_Polar_28.dat
Examples/Test_Cases/IEA-15-240-RWT-UMaineSemi/Airfoils/IEA-15-240-RWT_AeroDyn15_Polar_28_Coords.txt
Examples/Test_Cases/IEA-15-240-RWT-UMaineSemi/Airfoils/IEA-15-240-RWT_AeroDyn15_Polar_29.dat
Examples/Test_Cases/IEA-15-240-RWT-UMaineSemi/Airfoils/IEA-15-240-RWT_AeroDyn15_Polar_29_Coords.txt
Examples/Test_Cases/IEA-15-240-RWT-UMaineSemi/Airfoils/IEA-15-240-RWT_AeroDyn15_Polar_30.dat
Examples/Test_Cases/IEA-15-240-RWT-UMaineSemi/Airfoils/IEA-15-240-RWT_AeroDyn15_Polar_30_Coords.txt
Examples/Test_Cases/IEA-15-240-RWT-UMaineSemi/Airfoils/IEA-15-240-RWT_AeroDyn15_Polar_31.dat
Examples/Test_Cases/IEA-15-240-RWT-UMaineSemi/Airfoils/IEA-15-240-RWT_AeroDyn15_Polar_31_Coords.txt
Examples/Test_Cases/IEA-15-240-RWT-UMaineSemi/Airfoils/IEA-15-240-RWT_AeroDyn15_Polar_32.dat
Examples/Test_Cases/IEA-15-240-RWT-UMaineSemi/Airfoils/IEA-15-240-RWT_AeroDyn15_Polar_32_Coords.txt
Examples/Test_Cases/IEA-15-240-RWT-UMaineSemi/Airfoils/IEA-15-240-RWT_AeroDyn15_Polar_33.dat
Examples/Test_Cases/IEA-15-240-RWT-UMaineSemi/Airfoils/IEA-15-240-RWT_AeroDyn15_Polar_33_Coords.txt
Examples/Test_Cases/IEA-15-240-RWT-UMaineSemi/Airfoils/IEA-15-240-RWT_AeroDyn15_Polar_34.dat
Examples/Test_Cases/IEA-15-240-RWT-UMaineSemi/Airfoils/IEA-15-240-RWT_AeroDyn15_Polar_34_Coords.txt
Examples/Test_Cases/IEA-15-240-RWT-UMaineSemi/Airfoils/IEA-15-240-RWT_AeroDyn15_Polar_35.dat
Examples/Test_Cases/IEA-15-240-RWT-UMaineSemi/Airfoils/IEA-15-240-RWT_AeroDyn15_Polar_35_Coords.txt
Examples/Test_Cases/IEA-15-240-RWT-UMaineSemi/Airfoils/IEA-15-240-RWT_AeroDyn15_Polar_36.dat
Examples/Test_Cases/IEA-15-240-RWT-UMaineSemi/Airfoils/IEA-15-240-RWT_AeroDyn15_Polar_36_Coords.txt
Examples/Test_Cases/IEA-15-240-RWT-UMaineSemi/Airfoils/IEA-15-240-RWT_AeroDyn15_Polar_37.dat
Examples/Test_Cases/IEA-15-240-RWT-UMaineSemi/Airfoils/IEA-15-240-RWT_AeroDyn15_Polar_37_Coords.txt
Examples/Test_Cases/IEA-15-240-RWT-UMaineSemi/Airfoils/IEA-15-240-RWT_AeroDyn15_Polar_38.dat
Examples/Test_Cases/IEA-15-240-RWT-UMaineSemi/Airfoils/IEA-15-240-RWT_AeroDyn15_Polar_38_Coords.txt
Examples/Test_Cases/IEA-15-240-RWT-UMaineSemi/Airfoils/IEA-15-240-RWT_AeroDyn15_Polar_39.dat
Examples/Test_Cases/IEA-15-240-RWT-UMaineSemi/Airfoils/IEA-15-240-RWT_AeroDyn15_Polar_39_Coords.txt
Examples/Test_Cases/IEA-15-240-RWT-UMaineSemi/Airfoils/IEA-15-240-RWT_AeroDyn15_Polar_40.dat
Examples/Test_Cases/IEA-15-240-RWT-UMaineSemi/Airfoils/IEA-15-240-RWT_AeroDyn15_Polar_40_Coords.txt
Examples/Test_Cases/IEA-15-240-RWT-UMaineSemi/Airfoils/IEA-15-240-RWT_AeroDyn15_Polar_41.dat
Examples/Test_Cases/IEA-15-240-RWT-UMaineSemi/Airfoils/IEA-15-240-RWT_AeroDyn15_Polar_41_Coords.txt
Examples/Test_Cases/IEA-15-240-RWT-UMaineSemi/Airfoils/IEA-15-240-RWT_AeroDyn15_Polar_42.dat
Examples/Test_Cases/IEA-15-240-RWT-UMaineSemi/Airfoils/IEA-15-240-RWT_AeroDyn15_Polar_42_Coords.txt
Examples/Test_Cases/IEA-15-240-RWT-UMaineSemi/Airfoils/IEA-15-240-RWT_AeroDyn15_Polar_43.dat
Examples/Test_Cases/IEA-15-240-RWT-UMaineSemi/Airfoils/IEA-15-240-RWT_AeroDyn15_Polar_43_Coords.txt
Examples/Test_Cases/IEA-15-240-RWT-UMaineSemi/Airfoils/IEA-15-240-RWT_AeroDyn15_Polar_44.dat
Examples/Test_Cases/IEA-15-240-RWT-UMaineSemi/Airfoils/IEA-15-240-RWT_AeroDyn15_Polar_44_Coords.txt
Examples/Test_Cases/IEA-15-240-RWT-UMaineSemi/Airfoils/IEA-15-240-RWT_AeroDyn15_Polar_45.dat
Examples/Test_Cases/IEA-15-240-RWT-UMaineSemi/Airfoils/IEA-15-240-RWT_AeroDyn15_Polar_45_Coords.txt
Examples/Test_Cases/IEA-15-240-RWT-UMaineSemi/Airfoils/IEA-15-240-RWT_AeroDyn15_Polar_46.dat
Examples/Test_Cases/IEA-15-240-RWT-UMaineSemi/Airfoils/IEA-15-240-RWT_AeroDyn15_Polar_46_Coords.txt
Examples/Test_Cases/IEA-15-240-RWT-UMaineSemi/Airfoils/IEA-15-240-RWT_AeroDyn15_Polar_47.dat
Examples/Test_Cases/IEA-15-240-RWT-UMaineSemi/Airfoils/IEA-15-240-RWT_AeroDyn15_Polar_47_Coords.txt
Examples/Test_Cases/IEA-15-240-RWT-UMaineSemi/Airfoils/IEA-15-240-RWT_AeroDyn15_Polar_48.dat
Examples/Test_Cases/IEA-15-240-RWT-UMaineSemi/Airfoils/IEA-15-240-RWT_AeroDyn15_Polar_48_Coords.txt
Examples/Test_Cases/IEA-15-240-RWT-UMaineSemi/Airfoils/IEA-15-240-RWT_AeroDyn15_Polar_49.dat
Examples/Test_Cases/IEA-15-240-RWT-UMaineSemi/Airfoils/IEA-15-240-RWT_AeroDyn15_Polar_49_Coords.txt
Examples/Test_Cases/IEA-15-240-RWT-UMaineSemi/HydroData/IEA-15-240-RWT-UMaineSemi.1
Examples/Test_Cases/IEA-15-240-RWT-UMaineSemi/HydroData/IEA-15-240-RWT-UMaineSemi.12d
Examples/Test_Cases/IEA-15-240-RWT-UMaineSemi/HydroData/IEA-15-240-RWT-UMaineSemi.12s
Examples/Test_Cases/IEA-15-240-RWT-UMaineSemi/HydroData/IEA-15-240-RWT-UMaineSemi.3
Examples/Test_Cases/IEA-15-240-RWT-UMaineSemi/HydroData/IEA-15-240-RWT-UMaineSemi.hst
Examples/Test_Cases/IEA-15-240-RWT-UMaineSemi/HydroData/IEA-15-240-RWT-UMaineSemi.ss
Examples/Test_Cases/IEA-15-240-RWT-UMaineSemi/HydroData/IEA-15-240-RWT-UMaineSemi.ssexctn
Examples/Test_Cases/IEA-15-240-RWT-UMaineSemi/linearizations/lin_00.1.lin
Examples/Test_Cases/IEA-15-240-RWT-UMaineSemi/linearizations/lin_00.10.lin
Examples/Test_Cases/IEA-15-240-RWT-UMaineSemi/linearizations/lin_00.11.lin
Examples/Test_Cases/IEA-15-240-RWT-UMaineSemi/linearizations/lin_00.12.lin
Examples/Test_Cases/IEA-15-240-RWT-UMaineSemi/linearizations/lin_00.2.lin
Examples/Test_Cases/IEA-15-240-RWT-UMaineSemi/linearizations/lin_00.3.lin
Examples/Test_Cases/IEA-15-240-RWT-UMaineSemi/linearizations/lin_00.4.lin
Examples/Test_Cases/IEA-15-240-RWT-UMaineSemi/linearizations/lin_00.5.lin
Examples/Test_Cases/IEA-15-240-RWT-UMaineSemi/linearizations/lin_00.6.lin
Examples/Test_Cases/IEA-15-240-RWT-UMaineSemi/linearizations/lin_00.7.lin
Examples/Test_Cases/IEA-15-240-RWT-UMaineSemi/linearizations/lin_00.8.lin
Examples/Test_Cases/IEA-15-240-RWT-UMaineSemi/linearizations/lin_00.9.lin
Examples/Test_Cases/IEA-15-240-RWT-UMaineSemi/linearizations/lin_01.1.lin
Examples/Test_Cases/IEA-15-240-RWT-UMaineSemi/linearizations/lin_01.10.lin
Examples/Test_Cases/IEA-15-240-RWT-UMaineSemi/linearizations/lin_01.11.lin
Examples/Test_Cases/IEA-15-240-RWT-UMaineSemi/linearizations/lin_01.12.lin
Examples/Test_Cases/IEA-15-240-RWT-UMaineSemi/linearizations/lin_01.2.lin
Examples/Test_Cases/IEA-15-240-RWT-UMaineSemi/linearizations/lin_01.3.lin
Examples/Test_Cases/IEA-15-240-RWT-UMaineSemi/linearizations/lin_01.4.lin
Examples/Test_Cases/IEA-15-240-RWT-UMaineSemi/linearizations/lin_01.5.lin
Examples/Test_Cases/IEA-15-240-RWT-UMaineSemi/linearizations/lin_01.6.lin
Examples/Test_Cases/IEA-15-240-RWT-UMaineSemi/linearizations/lin_01.7.lin
Examples/Test_Cases/IEA-15-240-RWT-UMaineSemi/linearizations/lin_01.8.lin
Examples/Test_Cases/IEA-15-240-RWT-UMaineSemi/linearizations/lin_01.9.lin
Examples/Test_Cases/IEA-15-240-RWT-UMaineSemi/linearizations/lin_02.1.lin
Examples/Test_Cases/IEA-15-240-RWT-UMaineSemi/linearizations/lin_02.10.lin
Examples/Test_Cases/IEA-15-240-RWT-UMaineSemi/linearizations/lin_02.11.lin
Examples/Test_Cases/IEA-15-240-RWT-UMaineSemi/linearizations/lin_02.12.lin
Examples/Test_Cases/IEA-15-240-RWT-UMaineSemi/linearizations/lin_02.2.lin
Examples/Test_Cases/IEA-15-240-RWT-UMaineSemi/linearizations/lin_02.3.lin
Examples/Test_Cases/IEA-15-240-RWT-UMaineSemi/linearizations/lin_02.4.lin
Examples/Test_Cases/IEA-15-240-RWT-UMaineSemi/linearizations/lin_02.5.lin
Examples/Test_Cases/IEA-15-240-RWT-UMaineSemi/linearizations/lin_02.6.lin
Examples/Test_Cases/IEA-15-240-RWT-UMaineSemi/linearizations/lin_02.7.lin
Examples/Test_Cases/IEA-15-240-RWT-UMaineSemi/linearizations/lin_02.8.lin
Examples/Test_Cases/IEA-15-240-RWT-UMaineSemi/linearizations/lin_02.9.lin
Examples/Test_Cases/IEA-15-240-RWT-UMaineSemi/linearizations/lin_03.1.lin
Examples/Test_Cases/IEA-15-240-RWT-UMaineSemi/linearizations/lin_03.10.lin
Examples/Test_Cases/IEA-15-240-RWT-UMaineSemi/linearizations/lin_03.11.lin
Examples/Test_Cases/IEA-15-240-RWT-UMaineSemi/linearizations/lin_03.12.lin
Examples/Test_Cases/IEA-15-240-RWT-UMaineSemi/linearizations/lin_03.2.lin
Examples/Test_Cases/IEA-15-240-RWT-UMaineSemi/linearizations/lin_03.3.lin
Examples/Test_Cases/IEA-15-240-RWT-UMaineSemi/linearizations/lin_03.4.lin
Examples/Test_Cases/IEA-15-240-RWT-UMaineSemi/linearizations/lin_03.5.lin
Examples/Test_Cases/IEA-15-240-RWT-UMaineSemi/linearizations/lin_03.6.lin
Examples/Test_Cases/IEA-15-240-RWT-UMaineSemi/linearizations/lin_03.7.lin
Examples/Test_Cases/IEA-15-240-RWT-UMaineSemi/linearizations/lin_03.8.lin
Examples/Test_Cases/IEA-15-240-RWT-UMaineSemi/linearizations/lin_03.9.lin
Examples/Test_Cases/IEA-15-240-RWT-UMaineSemi/linearizations/lin_04.1.lin
Examples/Test_Cases/IEA-15-240-RWT-UMaineSemi/linearizations/lin_04.10.lin
Examples/Test_Cases/IEA-15-240-RWT-UMaineSemi/linearizations/lin_04.11.lin
Examples/Test_Cases/IEA-15-240-RWT-UMaineSemi/linearizations/lin_04.12.lin
Examples/Test_Cases/IEA-15-240-RWT-UMaineSemi/linearizations/lin_04.2.lin
Examples/Test_Cases/IEA-15-240-RWT-UMaineSemi/linearizations/lin_04.3.lin
Examples/Test_Cases/IEA-15-240-RWT-UMaineSemi/linearizations/lin_04.4.lin
Examples/Test_Cases/IEA-15-240-RWT-UMaineSemi/linearizations/lin_04.5.lin
Examples/Test_Cases/IEA-15-240-RWT-UMaineSemi/linearizations/lin_04.6.lin
Examples/Test_Cases/IEA-15-240-RWT-UMaineSemi/linearizations/lin_04.7.lin
Examples/Test_Cases/IEA-15-240-RWT-UMaineSemi/linearizations/lin_04.8.lin
Examples/Test_Cases/IEA-15-240-RWT-UMaineSemi/linearizations/lin_04.9.lin
Examples/Test_Cases/IEA-15-240-RWT-UMaineSemi/linearizations/lin_05.1.lin
Examples/Test_Cases/IEA-15-240-RWT-UMaineSemi/linearizations/lin_05.10.lin
Examples/Test_Cases/IEA-15-240-RWT-UMaineSemi/linearizations/lin_05.11.lin
Examples/Test_Cases/IEA-15-240-RWT-UMaineSemi/linearizations/lin_05.12.lin
Examples/Test_Cases/IEA-15-240-RWT-UMaineSemi/linearizations/lin_05.2.lin
Examples/Test_Cases/IEA-15-240-RWT-UMaineSemi/linearizations/lin_05.3.lin
Examples/Test_Cases/IEA-15-240-RWT-UMaineSemi/linearizations/lin_05.4.lin
Examples/Test_Cases/IEA-15-240-RWT-UMaineSemi/linearizations/lin_05.5.lin
Examples/Test_Cases/IEA-15-240-RWT-UMaineSemi/linearizations/lin_05.6.lin
Examples/Test_Cases/IEA-15-240-RWT-UMaineSemi/linearizations/lin_05.7.lin
Examples/Test_Cases/IEA-15-240-RWT-UMaineSemi/linearizations/lin_05.8.lin
Examples/Test_Cases/IEA-15-240-RWT-UMaineSemi/linearizations/lin_05.9.lin
Examples/Test_Cases/IEA-15-240-RWT-UMaineSemi/linearizations/lin_06.1.lin
Examples/Test_Cases/IEA-15-240-RWT-UMaineSemi/linearizations/lin_06.10.lin
Examples/Test_Cases/IEA-15-240-RWT-UMaineSemi/linearizations/lin_06.11.lin
Examples/Test_Cases/IEA-15-240-RWT-UMaineSemi/linearizations/lin_06.12.lin
Examples/Test_Cases/IEA-15-240-RWT-UMaineSemi/linearizations/lin_06.2.lin
Examples/Test_Cases/IEA-15-240-RWT-UMaineSemi/linearizations/lin_06.3.lin
Examples/Test_Cases/IEA-15-240-RWT-UMaineSemi/linearizations/lin_06.4.lin
Examples/Test_Cases/IEA-15-240-RWT-UMaineSemi/linearizations/lin_06.5.lin
Examples/Test_Cases/IEA-15-240-RWT-UMaineSemi/linearizations/lin_06.6.lin
Examples/Test_Cases/IEA-15-240-RWT-UMaineSemi/linearizations/lin_06.7.lin
Examples/Test_Cases/IEA-15-240-RWT-UMaineSemi/linearizations/lin_06.8.lin
Examples/Test_Cases/IEA-15-240-RWT-UMaineSemi/linearizations/lin_06.9.lin
Examples/Test_Cases/IEA-15-240-RWT-UMaineSemi/linearizations/lin_07.1.lin
Examples/Test_Cases/IEA-15-240-RWT-UMaineSemi/linearizations/lin_07.10.lin
Examples/Test_Cases/IEA-15-240-RWT-UMaineSemi/linearizations/lin_07.11.lin
Examples/Test_Cases/IEA-15-240-RWT-UMaineSemi/linearizations/lin_07.12.lin
Examples/Test_Cases/IEA-15-240-RWT-UMaineSemi/linearizations/lin_07.2.lin
Examples/Test_Cases/IEA-15-240-RWT-UMaineSemi/linearizations/lin_07.3.lin
Examples/Test_Cases/IEA-15-240-RWT-UMaineSemi/linearizations/lin_07.4.lin
Examples/Test_Cases/IEA-15-240-RWT-UMaineSemi/linearizations/lin_07.5.lin
Examples/Test_Cases/IEA-15-240-RWT-UMaineSemi/linearizations/lin_07.6.lin
Examples/Test_Cases/IEA-15-240-RWT-UMaineSemi/linearizations/lin_07.7.lin
Examples/Test_Cases/IEA-15-240-RWT-UMaineSemi/linearizations/lin_07.8.lin
Examples/Test_Cases/IEA-15-240-RWT-UMaineSemi/linearizations/lin_07.9.lin
Examples/Test_Cases/IEA-15-240-RWT-UMaineSemi/linearizations/lin_08.1.lin
Examples/Test_Cases/IEA-15-240-RWT-UMaineSemi/linearizations/lin_08.10.lin
Examples/Test_Cases/IEA-15-240-RWT-UMaineSemi/linearizations/lin_08.11.lin
Examples/Test_Cases/IEA-15-240-RWT-UMaineSemi/linearizations/lin_08.12.lin
Examples/Test_Cases/IEA-15-240-RWT-UMaineSemi/linearizations/lin_08.2.lin
Examples/Test_Cases/IEA-15-240-RWT-UMaineSemi/linearizations/lin_08.3.lin
Examples/Test_Cases/IEA-15-240-RWT-UMaineSemi/linearizations/lin_08.4.lin
Examples/Test_Cases/IEA-15-240-RWT-UMaineSemi/linearizations/lin_08.5.lin
Examples/Test_Cases/IEA-15-240-RWT-UMaineSemi/linearizations/lin_08.6.lin
Examples/Test_Cases/IEA-15-240-RWT-UMaineSemi/linearizations/lin_08.7.lin
Examples/Test_Cases/IEA-15-240-RWT-UMaineSemi/linearizations/lin_08.8.lin
Examples/Test_Cases/IEA-15-240-RWT-UMaineSemi/linearizations/lin_08.9.lin
Examples/Test_Cases/IEA-15-240-RWT-UMaineSemi/linearizations/lin_09.1.lin
Examples/Test_Cases/IEA-15-240-RWT-UMaineSemi/linearizations/lin_09.10.lin
Examples/Test_Cases/IEA-15-240-RWT-UMaineSemi/linearizations/lin_09.11.lin
Examples/Test_Cases/IEA-15-240-RWT-UMaineSemi/linearizations/lin_09.12.lin
Examples/Test_Cases/IEA-15-240-RWT-UMaineSemi/linearizations/lin_09.2.lin
Examples/Test_Cases/IEA-15-240-RWT-UMaineSemi/linearizations/lin_09.3.lin
Examples/Test_Cases/IEA-15-240-RWT-UMaineSemi/linearizations/lin_09.4.lin
Examples/Test_Cases/IEA-15-240-RWT-UMaineSemi/linearizations/lin_09.5.lin
Examples/Test_Cases/IEA-15-240-RWT-UMaineSemi/linearizations/lin_09.6.lin
Examples/Test_Cases/IEA-15-240-RWT-UMaineSemi/linearizations/lin_09.7.lin
Examples/Test_Cases/IEA-15-240-RWT-UMaineSemi/linearizations/lin_09.8.lin
Examples/Test_Cases/IEA-15-240-RWT-UMaineSemi/linearizations/lin_09.9.lin
Examples/Test_Cases/IEA-15-240-RWT-UMaineSemi/linearizations/lin_10.1.lin
Examples/Test_Cases/IEA-15-240-RWT-UMaineSemi/linearizations/lin_10.10.lin
Examples/Test_Cases/IEA-15-240-RWT-UMaineSemi/linearizations/lin_10.11.lin
Examples/Test_Cases/IEA-15-240-RWT-UMaineSemi/linearizations/lin_10.12.lin
Examples/Test_Cases/IEA-15-240-RWT-UMaineSemi/linearizations/lin_10.2.lin
Examples/Test_Cases/IEA-15-240-RWT-UMaineSemi/linearizations/lin_10.3.lin
Examples/Test_Cases/IEA-15-240-RWT-UMaineSemi/linearizations/lin_10.4.lin
Examples/Test_Cases/IEA-15-240-RWT-UMaineSemi/linearizations/lin_10.5.lin
Examples/Test_Cases/IEA-15-240-RWT-UMaineSemi/linearizations/lin_10.6.lin
Examples/Test_Cases/IEA-15-240-RWT-UMaineSemi/linearizations/lin_10.7.lin
Examples/Test_Cases/IEA-15-240-RWT-UMaineSemi/linearizations/lin_10.8.lin
Examples/Test_Cases/IEA-15-240-RWT-UMaineSemi/linearizations/lin_10.9.lin
Examples/Test_Cases/IEA-15-240-RWT-UMaineSemi/linearizations/lin_11.1.lin
Examples/Test_Cases/IEA-15-240-RWT-UMaineSemi/linearizations/lin_11.10.lin
Examples/Test_Cases/IEA-15-240-RWT-UMaineSemi/linearizations/lin_11.11.lin
Examples/Test_Cases/IEA-15-240-RWT-UMaineSemi/linearizations/lin_11.12.lin
Examples/Test_Cases/IEA-15-240-RWT-UMaineSemi/linearizations/lin_11.2.lin
Examples/Test_Cases/IEA-15-240-RWT-UMaineSemi/linearizations/lin_11.3.lin
Examples/Test_Cases/IEA-15-240-RWT-UMaineSemi/linearizations/lin_11.4.lin
Examples/Test_Cases/IEA-15-240-RWT-UMaineSemi/linearizations/lin_11.5.lin
Examples/Test_Cases/IEA-15-240-RWT-UMaineSemi/linearizations/lin_11.6.lin
Examples/Test_Cases/IEA-15-240-RWT-UMaineSemi/linearizations/lin_11.7.lin
Examples/Test_Cases/IEA-15-240-RWT-UMaineSemi/linearizations/lin_11.8.lin
Examples/Test_Cases/IEA-15-240-RWT-UMaineSemi/linearizations/lin_11.9.lin
Examples/Test_Cases/IEA-15-240-RWT-UMaineSemi/linearizations/lin_12.1.lin
Examples/Test_Cases/IEA-15-240-RWT-UMaineSemi/linearizations/lin_12.10.lin
Examples/Test_Cases/IEA-15-240-RWT-UMaineSemi/linearizations/lin_12.11.lin
Examples/Test_Cases/IEA-15-240-RWT-UMaineSemi/linearizations/lin_12.12.lin
Examples/Test_Cases/IEA-15-240-RWT-UMaineSemi/linearizations/lin_12.2.lin
Examples/Test_Cases/IEA-15-240-RWT-UMaineSemi/linearizations/lin_12.3.lin
Examples/Test_Cases/IEA-15-240-RWT-UMaineSemi/linearizations/lin_12.4.lin
Examples/Test_Cases/IEA-15-240-RWT-UMaineSemi/linearizations/lin_12.5.lin
Examples/Test_Cases/IEA-15-240-RWT-UMaineSemi/linearizations/lin_12.6.lin
Examples/Test_Cases/IEA-15-240-RWT-UMaineSemi/linearizations/lin_12.7.lin
Examples/Test_Cases/IEA-15-240-RWT-UMaineSemi/linearizations/lin_12.8.lin
Examples/Test_Cases/IEA-15-240-RWT-UMaineSemi/linearizations/lin_12.9.lin
Examples/Test_Cases/IEA-15-240-RWT-UMaineSemi/linearizations/lin_13.1.lin
Examples/Test_Cases/IEA-15-240-RWT-UMaineSemi/linearizations/lin_13.10.lin
Examples/Test_Cases/IEA-15-240-RWT-UMaineSemi/linearizations/lin_13.11.lin
Examples/Test_Cases/IEA-15-240-RWT-UMaineSemi/linearizations/lin_13.12.lin
Examples/Test_Cases/IEA-15-240-RWT-UMaineSemi/linearizations/lin_13.2.lin
Examples/Test_Cases/IEA-15-240-RWT-UMaineSemi/linearizations/lin_13.3.lin
Examples/Test_Cases/IEA-15-240-RWT-UMaineSemi/linearizations/lin_13.4.lin
Examples/Test_Cases/IEA-15-240-RWT-UMaineSemi/linearizations/lin_13.5.lin
Examples/Test_Cases/IEA-15-240-RWT-UMaineSemi/linearizations/lin_13.6.lin
Examples/Test_Cases/IEA-15-240-RWT-UMaineSemi/linearizations/lin_13.7.lin
Examples/Test_Cases/IEA-15-240-RWT-UMaineSemi/linearizations/lin_13.8.lin
Examples/Test_Cases/IEA-15-240-RWT-UMaineSemi/linearizations/lin_13.9.lin
Examples/Test_Cases/IEA-15-240-RWT-UMaineSemi/linearizations/lin_14.1.lin
Examples/Test_Cases/IEA-15-240-RWT-UMaineSemi/linearizations/lin_14.10.lin
Examples/Test_Cases/IEA-15-240-RWT-UMaineSemi/linearizations/lin_14.11.lin
Examples/Test_Cases/IEA-15-240-RWT-UMaineSemi/linearizations/lin_14.12.lin